data/feeders/R3-12.47-3.glm
clock {
     timezone EST+5EDT;
     timestamp '2000-01-01 0:00:00';
     stoptime '2000-01-01 0:01:00';
}
#set profiler=1
module tape;
module powerflow{
  solver_method NR;
  default_maximum_voltage_error 1e-6;
};
object transformer_configuration {
  name XF1_POLETOP_BS_5;
  power_rating 5.00;
  powerA_rating 0.0;
  powerB_rating 5.00;
  powerC_rating 0.0;
  install_type POLETOP;
  connect_type SINGLE_PHASE_CENTER_TAPPED;
  primary_voltage 7200.0;
  secondary_voltage 120.0;
  resistance 0.01050;
  resistance1 0.02100;
  resistance2 0.02100;
  reactance 0.01224;
  reactance1 0.00612;
  reactance2 0.00612;
  shunt_resistance 111.11;
  shunt_reactance 29.59;
}
object transformer_configuration {
  name XF1_POLETOP_CS_5;
  power_rating 5.00;
  powerA_rating 0.0;
  powerB_rating 0.0;
  powerC_rating 5.00;
  install_type POLETOP;
  connect_type SINGLE_PHASE_CENTER_TAPPED;
  primary_voltage 7200.0;
  secondary_voltage 120.0;
  resistance 0.01050;
  resistance1 0.02100;
  resistance2 0.02100;
  reactance 0.01224;
  reactance1 0.00612;
  reactance2 0.00612;
  shunt_resistance 111.11;
  shunt_reactance 29.59;
}
object transformer_configuration {
  name XF1_POLETOP_AS_5;
  power_rating 5.00;
  powerA_rating 5.00;
  powerB_rating 0.0;
  powerC_rating 0.0;
  install_type POLETOP;
  connect_type SINGLE_PHASE_CENTER_TAPPED;
  primary_voltage 7200.0;
  secondary_voltage 120.0;
  resistance 0.01050;
  resistance1 0.02100;
  resistance2 0.02100;
  reactance 0.01224;
  reactance1 0.00612;
  reactance2 0.00612;
  shunt_resistance 111.11;
  shunt_reactance 29.59;
}
object transformer_configuration {
  name XF1_PADMOUNT_BS_5;
  power_rating 5.00;
  powerA_rating 0.0;
  powerB_rating 5.00;
  powerC_rating 0.0;
  install_type PADMOUNT;
  connect_type SINGLE_PHASE_CENTER_TAPPED;
  primary_voltage 7200.0;
  secondary_voltage 120.0;
  resistance 0.01050;
  resistance1 0.02100;
  resistance2 0.02100;
  reactance 0.01224;
  reactance1 0.00612;
  reactance2 0.00612;
  shunt_resistance 111.11;
  shunt_reactance 29.59;
}
object transformer_configuration {
  name XF1_PADMOUNT_CS_5;
  power_rating 5.00;
  powerA_rating 0.0;
  powerB_rating 0.0;
  powerC_rating 5.00;
  install_type PADMOUNT;
  connect_type SINGLE_PHASE_CENTER_TAPPED;
  primary_voltage 7200.0;
  secondary_voltage 120.0;
  resistance 0.01050;
  resistance1 0.02100;
  resistance2 0.02100;
  reactance 0.01224;
  reactance1 0.00612;
  reactance2 0.00612;
  shunt_resistance 111.11;
  shunt_reactance 29.59;
}
object transformer_configuration {
  name XF1_PADMOUNT_AS_5;
  power_rating 5.00;
  powerA_rating 5.00;
  powerB_rating 0.0;
  powerC_rating 0.0;
  install_type PADMOUNT;
  connect_type SINGLE_PHASE_CENTER_TAPPED;
  primary_voltage 7200.0;
  secondary_voltage 120.0;
  resistance 0.01050;
  resistance1 0.02100;
  resistance2 0.02100;
  reactance 0.01224;
  reactance1 0.00612;
  reactance2 0.00612;
  shunt_resistance 111.11;
  shunt_reactance 29.59;
}
object transformer_configuration {
  name XF1_POLETOP_AS_25;
  power_rating 25.00;
  powerA_rating 25.00;
  powerB_rating 0.0;
  powerC_rating 0.0;
  install_type POLETOP;
  connect_type SINGLE_PHASE_CENTER_TAPPED;
  primary_voltage 7200.0;
  secondary_voltage 120.0;
  resistance 0.00800;
  resistance1 0.01600;
  resistance2 0.01600;
  reactance 0.01208;
  reactance1 0.00604;
  reactance2 0.00604;
  shunt_resistance 192.31;
  shunt_reactance 51.81;
}
object transformer_configuration {
  name XF1_POLETOP_BS_25;
  power_rating 25.00;
  powerA_rating 0.0;
  powerB_rating 25.00;
  powerC_rating 0.0;
  install_type POLETOP;
  connect_type SINGLE_PHASE_CENTER_TAPPED;
  primary_voltage 7200.0;
  secondary_voltage 120.0;
  resistance 0.00800;
  resistance1 0.01600;
  resistance2 0.01600;
  reactance 0.01208;
  reactance1 0.00604;
  reactance2 0.00604;
  shunt_resistance 192.31;
  shunt_reactance 51.81;
}
object transformer_configuration {
  name XF1_POLETOP_CS_25;
  power_rating 25.00;
  powerA_rating 0.0;
  powerB_rating 0.0;
  powerC_rating 25.00;
  install_type POLETOP;
  connect_type SINGLE_PHASE_CENTER_TAPPED;
  primary_voltage 7200.0;
  secondary_voltage 120.0;
  resistance 0.00800;
  resistance1 0.01600;
  resistance2 0.01600;
  reactance 0.01208;
  reactance1 0.00604;
  reactance2 0.00604;
  shunt_resistance 192.31;
  shunt_reactance 51.81;
}
object transformer_configuration {
  name XF1_POLETOP_CS_10;
  power_rating 10.00;
  powerA_rating 0.0;
  powerB_rating 0.0;
  powerC_rating 10.00;
  install_type POLETOP;
  connect_type SINGLE_PHASE_CENTER_TAPPED;
  primary_voltage 7200.0;
  secondary_voltage 120.0;
  resistance 0.00950;
  resistance1 0.01900;
  resistance2 0.01900;
  reactance 0.01040;
  reactance1 0.00520;
  reactance2 0.00520;
  shunt_resistance 147.06;
  shunt_reactance 34.25;
}
object transformer_configuration {
  name XF1_PADMOUNT_CS_37p5;
  power_rating 37.50;
  powerA_rating 0.0;
  powerB_rating 0.0;
  powerC_rating 37.50;
  install_type PADMOUNT;
  connect_type SINGLE_PHASE_CENTER_TAPPED;
  primary_voltage 7200.0;
  secondary_voltage 120.0;
  resistance 0.00725;
  resistance1 0.01450;
  resistance2 0.01450;
  reactance 0.01320;
  reactance1 0.00660;
  reactance2 0.00660;
  shunt_resistance 212.77;
  shunt_reactance 57.47;
}
object transformer_configuration {
  name XF1_POLETOP_BS_10;
  power_rating 10.00;
  powerA_rating 0.0;
  powerB_rating 10.00;
  powerC_rating 0.0;
  install_type POLETOP;
  connect_type SINGLE_PHASE_CENTER_TAPPED;
  primary_voltage 7200.0;
  secondary_voltage 120.0;
  resistance 0.00950;
  resistance1 0.01900;
  resistance2 0.01900;
  reactance 0.01040;
  reactance1 0.00520;
  reactance2 0.00520;
  shunt_resistance 147.06;
  shunt_reactance 34.25;
}
object transformer_configuration {
  name XF1_PADMOUNT_BS_10;
  power_rating 10.00;
  powerA_rating 0.0;
  powerB_rating 10.00;
  powerC_rating 0.0;
  install_type PADMOUNT;
  connect_type SINGLE_PHASE_CENTER_TAPPED;
  primary_voltage 7200.0;
  secondary_voltage 120.0;
  resistance 0.00950;
  resistance1 0.01900;
  resistance2 0.01900;
  reactance 0.01040;
  reactance1 0.00520;
  reactance2 0.00520;
  shunt_resistance 147.06;
  shunt_reactance 34.25;
}
object transformer_configuration {
  name XF1_POLETOP_AS_10;
  power_rating 10.00;
  powerA_rating 10.00;
  powerB_rating 0.0;
  powerC_rating 0.0;
  install_type POLETOP;
  connect_type SINGLE_PHASE_CENTER_TAPPED;
  primary_voltage 7200.0;
  secondary_voltage 120.0;
  resistance 0.00950;
  resistance1 0.01900;
  resistance2 0.01900;
  reactance 0.01040;
  reactance1 0.00520;
  reactance2 0.00520;
  shunt_resistance 147.06;
  shunt_reactance 34.25;
}
object transformer_configuration {
  name XF1_POLETOP_AS_37p5;
  power_rating 37.50;
  powerA_rating 37.50;
  powerB_rating 0.0;
  powerC_rating 0.0;
  install_type POLETOP;
  connect_type SINGLE_PHASE_CENTER_TAPPED;
  primary_voltage 7200.0;
  secondary_voltage 120.0;
  resistance 0.00725;
  resistance1 0.01450;
  resistance2 0.01450;
  reactance 0.01320;
  reactance1 0.00660;
  reactance2 0.00660;
  shunt_resistance 212.77;
  shunt_reactance 57.47;
}
object transformer_configuration {
  name XF1_POLETOP_BS_37p5;
  power_rating 37.50;
  powerA_rating 0.0;
  powerB_rating 37.50;
  powerC_rating 0.0;
  install_type POLETOP;
  connect_type SINGLE_PHASE_CENTER_TAPPED;
  primary_voltage 7200.0;
  secondary_voltage 120.0;
  resistance 0.00725;
  resistance1 0.01450;
  resistance2 0.01450;
  reactance 0.01320;
  reactance1 0.00660;
  reactance2 0.00660;
  shunt_resistance 212.77;
  shunt_reactance 57.47;
}
object transformer_configuration {
  name XF1_POLETOP_CS_37p5;
  power_rating 37.50;
  powerA_rating 0.0;
  powerB_rating 0.0;
  powerC_rating 37.50;
  install_type POLETOP;
  connect_type SINGLE_PHASE_CENTER_TAPPED;
  primary_voltage 7200.0;
  secondary_voltage 120.0;
  resistance 0.00725;
  resistance1 0.01450;
  resistance2 0.01450;
  reactance 0.01320;
  reactance1 0.00660;
  reactance2 0.00660;
  shunt_resistance 212.77;
  shunt_reactance 57.47;
}
object transformer_configuration {
  name XF1_PADMOUNT_AS_10;
  power_rating 10.00;
  powerA_rating 10.00;
  powerB_rating 0.0;
  powerC_rating 0.0;
  install_type PADMOUNT;
  connect_type SINGLE_PHASE_CENTER_TAPPED;
  primary_voltage 7200.0;
  secondary_voltage 120.0;
  resistance 0.00950;
  resistance1 0.01900;
  resistance2 0.01900;
  reactance 0.01040;
  reactance1 0.00520;
  reactance2 0.00520;
  shunt_resistance 147.06;
  shunt_reactance 34.25;
}
object transformer_configuration {
  name XF1_PADMOUNT_CS_10;
  power_rating 10.00;
  powerA_rating 0.0;
  powerB_rating 0.0;
  powerC_rating 10.00;
  install_type PADMOUNT;
  connect_type SINGLE_PHASE_CENTER_TAPPED;
  primary_voltage 7200.0;
  secondary_voltage 120.0;
  resistance 0.00950;
  resistance1 0.01900;
  resistance2 0.01900;
  reactance 0.01040;
  reactance1 0.00520;
  reactance2 0.00520;
  shunt_resistance 147.06;
  shunt_reactance 34.25;
}
object transformer_configuration {
  name XF1_PADMOUNT_AS_25;
  power_rating 25.00;
  powerA_rating 25.00;
  powerB_rating 0.0;
  powerC_rating 0.0;
  install_type PADMOUNT;
  connect_type SINGLE_PHASE_CENTER_TAPPED;
  primary_voltage 7200.0;
  secondary_voltage 120.0;
  resistance 0.00800;
  resistance1 0.01600;
  resistance2 0.01600;
  reactance 0.01208;
  reactance1 0.00604;
  reactance2 0.00604;
  shunt_resistance 192.31;
  shunt_reactance 51.81;
}
object transformer_configuration {
  name XF1_POLETOP_AS_167;
  power_rating 167.00;
  powerA_rating 167.00;
  powerB_rating 0.0;
  powerC_rating 0.0;
  install_type POLETOP;
  connect_type SINGLE_PHASE_CENTER_TAPPED;
  primary_voltage 7200.0;
  secondary_voltage 120.0;
  resistance 0.00575;
  resistance1 0.01150;
  resistance2 0.01150;
  reactance 0.02216;
  reactance1 0.01108;
  reactance2 0.01108;
  shunt_resistance 263.16;
  shunt_reactance 60.24;
}
object transformer_configuration {
  name XF1_POLETOP_BS_167;
  power_rating 167.00;
  powerA_rating 0.0;
  powerB_rating 167.00;
  powerC_rating 0.0;
  install_type POLETOP;
  connect_type SINGLE_PHASE_CENTER_TAPPED;
  primary_voltage 7200.0;
  secondary_voltage 120.0;
  resistance 0.00575;
  resistance1 0.01150;
  resistance2 0.01150;
  reactance 0.02216;
  reactance1 0.01108;
  reactance2 0.01108;
  shunt_resistance 263.16;
  shunt_reactance 60.24;
}
object transformer_configuration {
  name XF1_POLETOP_CS_167;
  power_rating 167.00;
  powerA_rating 0.0;
  powerB_rating 0.0;
  powerC_rating 167.00;
  install_type POLETOP;
  connect_type SINGLE_PHASE_CENTER_TAPPED;
  primary_voltage 7200.0;
  secondary_voltage 120.0;
  resistance 0.00575;
  resistance1 0.01150;
  resistance2 0.01150;
  reactance 0.02216;
  reactance1 0.01108;
  reactance2 0.01108;
  shunt_resistance 263.16;
  shunt_reactance 60.24;
}
object transformer_configuration {
  name XF1_PADMOUNT_BS_25;
  power_rating 25.00;
  powerA_rating 0.0;
  powerB_rating 25.00;
  powerC_rating 0.0;
  install_type PADMOUNT;
  connect_type SINGLE_PHASE_CENTER_TAPPED;
  primary_voltage 7200.0;
  secondary_voltage 120.0;
  resistance 0.00800;
  resistance1 0.01600;
  resistance2 0.01600;
  reactance 0.01208;
  reactance1 0.00604;
  reactance2 0.00604;
  shunt_resistance 192.31;
  shunt_reactance 51.81;
}
object transformer_configuration {
  name XF1_POLETOP_AS_15;
  power_rating 15.00;
  powerA_rating 15.00;
  powerB_rating 0.0;
  powerC_rating 0.0;
  install_type POLETOP;
  connect_type SINGLE_PHASE_CENTER_TAPPED;
  primary_voltage 7200.0;
  secondary_voltage 120.0;
  resistance 0.00850;
  resistance1 0.01700;
  resistance2 0.01700;
  reactance 0.01176;
  reactance1 0.00588;
  reactance2 0.00588;
  shunt_resistance 166.67;
  shunt_reactance 39.53;
}
object transformer_configuration {
  name XF1_POLETOP_BS_15;
  power_rating 15.00;
  powerA_rating 0.0;
  powerB_rating 15.00;
  powerC_rating 0.0;
  install_type POLETOP;
  connect_type SINGLE_PHASE_CENTER_TAPPED;
  primary_voltage 7200.0;
  secondary_voltage 120.0;
  resistance 0.00850;
  resistance1 0.01700;
  resistance2 0.01700;
  reactance 0.01176;
  reactance1 0.00588;
  reactance2 0.00588;
  shunt_resistance 166.67;
  shunt_reactance 39.53;
}
object transformer_configuration {
  name XF1_POLETOP_CS_15;
  power_rating 15.00;
  powerA_rating 0.0;
  powerB_rating 0.0;
  powerC_rating 15.00;
  install_type POLETOP;
  connect_type SINGLE_PHASE_CENTER_TAPPED;
  primary_voltage 7200.0;
  secondary_voltage 120.0;
  resistance 0.00850;
  resistance1 0.01700;
  resistance2 0.01700;
  reactance 0.01176;
  reactance1 0.00588;
  reactance2 0.00588;
  shunt_resistance 166.67;
  shunt_reactance 39.53;
}
object transformer_configuration {
  name XF1_PADMOUNT_CS_25;
  power_rating 25.00;
  powerA_rating 0.0;
  powerB_rating 0.0;
  powerC_rating 25.00;
  install_type PADMOUNT;
  connect_type SINGLE_PHASE_CENTER_TAPPED;
  primary_voltage 7200.0;
  secondary_voltage 120.0;
  resistance 0.00800;
  resistance1 0.01600;
  resistance2 0.01600;
  reactance 0.01208;
  reactance1 0.00604;
  reactance2 0.00604;
  shunt_resistance 192.31;
  shunt_reactance 51.81;
}
object transformer_configuration {
  name XF3_POLETOP_ABCN_30;
  power_rating 30.00;
  powerA_rating 10.00;
  powerB_rating 10.00;
  powerC_rating 10.00;
  install_type POLETOP;
  connect_type WYE_WYE;
  primary_voltage 12470.0;
  secondary_voltage 208.0;
  resistance 0.01900;
  reactance 0.01770;
  shunt_resistance 126.58;
  shunt_reactance 22.57;
}
object transformer_configuration {
  name XF2_POLETOP_ABN_30;
  power_rating 30.00;
  powerA_rating 15.00;
  powerB_rating 15.00;
  powerC_rating 0.0;
  install_type POLETOP;
  connect_type WYE_WYE;
  primary_voltage 12470.0;
  secondary_voltage 208.0;
  resistance 0.01900;
  reactance 0.01770;
  shunt_resistance 126.58;
  shunt_reactance 22.57;
}
object transformer_configuration {
  name XF2_POLETOP_ACN_30;
  power_rating 30.00;
  powerA_rating 15.00;
  powerB_rating 0.0;
  powerC_rating 15.00;
  install_type POLETOP;
  connect_type WYE_WYE;
  primary_voltage 12470.0;
  secondary_voltage 208.0;
  resistance 0.01900;
  reactance 0.01770;
  shunt_resistance 126.58;
  shunt_reactance 22.57;
}
object transformer_configuration {
  name XF3_PADMOUNT_ABCN_30;
  power_rating 30.00;
  powerA_rating 10.00;
  powerB_rating 10.00;
  powerC_rating 10.00;
  install_type PADMOUNT;
  connect_type WYE_WYE;
  primary_voltage 12470.0;
  secondary_voltage 208.0;
  resistance 0.01900;
  reactance 0.01770;
  shunt_resistance 126.58;
  shunt_reactance 22.57;
}
object transformer_configuration {
  name XF2_PADMOUNT_ACN_30;
  power_rating 30.00;
  powerA_rating 15.00;
  powerB_rating 0.0;
  powerC_rating 15.00;
  install_type PADMOUNT;
  connect_type WYE_WYE;
  primary_voltage 12470.0;
  secondary_voltage 208.0;
  resistance 0.01900;
  reactance 0.01770;
  shunt_resistance 126.58;
  shunt_reactance 22.57;
}
object transformer_configuration {
  name XF2_PADMOUNT_ABN_30;
  power_rating 30.00;
  powerA_rating 15.00;
  powerB_rating 15.00;
  powerC_rating 0.0;
  install_type PADMOUNT;
  connect_type WYE_WYE;
  primary_voltage 12470.0;
  secondary_voltage 208.0;
  resistance 0.01900;
  reactance 0.01770;
  shunt_resistance 126.58;
  shunt_reactance 22.57;
}
object transformer_configuration {
  name XF3_POLETOP_ABCN_75;
  power_rating 75.00;
  powerA_rating 25.00;
  powerB_rating 25.00;
  powerC_rating 25.00;
  install_type POLETOP;
  connect_type WYE_WYE;
  primary_voltage 12470.0;
  secondary_voltage 208.0;
  resistance 0.01600;
  reactance 0.02420;
  shunt_resistance 158.73;
  shunt_reactance 30.86;
}
object transformer_configuration {
  name XF1_POLETOP_CN_10;
  power_rating 10.00;
  powerA_rating 0.0;
  powerB_rating 0.0;
  powerC_rating 10.00;
  install_type POLETOP;
  connect_type WYE_WYE;
  primary_voltage 12470.0;
  secondary_voltage 208.0;
  resistance 0.01900;
  reactance 0.01770;
  shunt_resistance 126.58;
  shunt_reactance 22.57;
}
object transformer_configuration {
  name XF1_POLETOP_BN_10;
  power_rating 10.00;
  powerA_rating 0.0;
  powerB_rating 10.00;
  powerC_rating 0.0;
  install_type POLETOP;
  connect_type WYE_WYE;
  primary_voltage 12470.0;
  secondary_voltage 208.0;
  resistance 0.01900;
  reactance 0.01770;
  shunt_resistance 126.58;
  shunt_reactance 22.57;
}
object transformer_configuration {
  name XF2_POLETOP_BCN_30;
  power_rating 30.00;
  powerA_rating 0.0;
  powerB_rating 15.00;
  powerC_rating 15.00;
  install_type POLETOP;
  connect_type WYE_WYE;
  primary_voltage 12470.0;
  secondary_voltage 208.0;
  resistance 0.01900;
  reactance 0.01770;
  shunt_resistance 126.58;
  shunt_reactance 22.57;
}
object transformer_configuration {
  name XF3_POLETOP_ABCN_112p5;
  power_rating 112.50;
  powerA_rating 37.50;
  powerB_rating 37.50;
  powerC_rating 37.50;
  install_type POLETOP;
  connect_type WYE_WYE;
  primary_voltage 12470.0;
  secondary_voltage 480.0;
  resistance 0.01450;
  reactance 0.02850;
  shunt_resistance 169.49;
  shunt_reactance 33.44;
}
object transformer_configuration {
  name XF2_PADMOUNT_BCN_30;
  power_rating 30.00;
  powerA_rating 0.0;
  powerB_rating 15.00;
  powerC_rating 15.00;
  install_type PADMOUNT;
  connect_type WYE_WYE;
  primary_voltage 12470.0;
  secondary_voltage 208.0;
  resistance 0.01900;
  reactance 0.01770;
  shunt_resistance 126.58;
  shunt_reactance 22.57;
}
object transformer_configuration {
  name XF3_POLETOP_ABCN_300;
  power_rating 300.00;
  powerA_rating 100.00;
  powerB_rating 100.00;
  powerC_rating 100.00;
  install_type POLETOP;
  connect_type WYE_WYE;
  primary_voltage 12470.0;
  secondary_voltage 480.0;
  resistance 0.01300;
  reactance 0.04830;
  shunt_resistance 217.39;
  shunt_reactance 44.44;
}
object regulator_configuration {
  name feeder_reg_cfg;
  connect_type WYE_WYE;
  Control OUTPUT_VOLTAGE;
  band_center 7500.0;
  band_width 120;
  time_delay 30;
  raise_taps 16;
  lower_taps 16;
  regulation 0.10;
  tap_pos_A 0;
  tap_pos_B 0;
  tap_pos_C 0;
}
object regulator_configuration {
  name voltage_reg_cfg;
  connect_type WYE_WYE;
  Control OUTPUT_VOLTAGE;
  band_center 7500.0;
  band_width 120;
  time_delay 30;
  raise_taps 16;
  lower_taps 16;
  regulation 0.10;
  tap_pos_A 0;
  tap_pos_B 0;
  tap_pos_C 0;
}
object overhead_line_conductor {
  name ID_3931;
  rating.summer.continuous 300.0;
  geometric_mean_radius 0.00600 ft;
  resistance 0.63800;
}
object overhead_line_conductor {
  name ID_3932;
  rating.summer.continuous 180.0;
  geometric_mean_radius 0.00340 ft;
  resistance 0.28600;
}
object overhead_line_conductor {
  name ID_3933;
  rating.summer.continuous 149.0;
  geometric_mean_radius 0.00663 ft;
  resistance 1.50000;
}
object overhead_line_conductor {
  name ID_3934;
  rating.summer.continuous 230.0;
  geometric_mean_radius 0.01203 ft;
  resistance 0.95300;
}
object overhead_line_conductor {
  name ID_3935;
  rating.summer.continuous 858.0;
  geometric_mean_radius 0.02940 ft;
  resistance 0.16300;
}
object overhead_line_conductor {
  name ID_3936;
  rating.summer.continuous 530.0;
  geometric_mean_radius 0.02300 ft;
  resistance 0.30300;
}
object line_spacing {
  name ID_193;
  distance_AB 37.0 in;
  distance_BC 37.0 in;
  distance_AC 37.0 in;
  distance_AN 37.0 in;
  distance_BN 37.0 in;
  distance_CN 37.0 in;
}
object line_spacing {
  name ID_194;
  distance_AC 37.0 in;
  distance_AN 37.0 in;
  distance_CN 37.0 in;
}
object line_spacing {
  name ID_195;
  distance_BC 37.0 in;
  distance_BN 37.0 in;
  distance_CN 37.0 in;
}
object line_spacing {
  name ID_196;
  distance_AB 37.0 in;
  distance_AN 37.0 in;
  distance_BN 37.0 in;
}
object line_spacing {
  name ID_197;
  distance_CN 37.0 in;
}
object line_spacing {
  name ID_198;
  distance_BN 37.0 in;
}
object line_spacing {
  name ID_199;
  distance_AN 37.0 in;
}
object line_spacing {
  name ID_200;
  distance_AB 48.0 in;
  distance_BC 48.0 in;
  distance_AC 48.0 in;
  distance_AN 36.0 in;
  distance_BN 36.0 in;
  distance_CN 36.0 in;
}
object line_configuration {
  name ID_147;
  conductor_A ID_3931;
  conductor_B ID_3931;
  conductor_C ID_3931;
  conductor_N ID_3931;
  spacing ID_193;
}
object line_configuration {
  name ID_148;
  conductor_A ID_3932;
  conductor_B ID_3932;
  conductor_C ID_3932;
  conductor_N ID_3932;
  spacing ID_193;
}
object line_configuration {
  name ID_149;
  conductor_A ID_3932;
  conductor_C ID_3932;
  conductor_N ID_3932;
  spacing ID_194;
}
object line_configuration {
  name ID_150;
  conductor_A ID_12601;
  conductor_C ID_12601;
  conductor_N ID_12601;
  spacing ID_194;
}
object line_configuration {
  name ID_151;
  conductor_B ID_3932;
  conductor_C ID_3932;
  conductor_N ID_3932;
  spacing ID_195;
}
object line_configuration {
  name ID_152;
  conductor_A ID_12602;
  conductor_B ID_12602;
  conductor_C ID_12602;
  conductor_N ID_12602;
  spacing ID_193;
}
object line_configuration {
  name ID_153;
  conductor_A ID_12603;
  conductor_B ID_12603;
  conductor_C ID_12603;
  conductor_N ID_12603;
  spacing ID_193;
}
object line_configuration {
  name ID_154;
  conductor_B ID_12604;
  conductor_C ID_12604;
  conductor_N ID_12604;
  spacing ID_195;
}
object line_configuration {
  name ID_155;
  conductor_A ID_3933;
  conductor_B ID_3933;
  conductor_C ID_3933;
  conductor_N ID_3933;
  spacing ID_193;
}
object line_configuration {
  name ID_156;
  conductor_A ID_12604;
  conductor_B ID_12604;
  conductor_C ID_12604;
  conductor_N ID_12604;
  spacing ID_193;
}
object line_configuration {
  name ID_157;
  conductor_A ID_3933;
  conductor_B ID_3933;
  conductor_N ID_3933;
  spacing ID_196;
}
object line_configuration {
  name ID_158;
  conductor_A ID_12605;
  conductor_C ID_12605;
  conductor_N ID_12605;
  spacing ID_194;
}
object line_configuration {
  name ID_159;
  conductor_A ID_3933;
  conductor_C ID_3933;
  conductor_N ID_3933;
  spacing ID_194;
}
object line_configuration {
  name ID_160;
  conductor_A ID_3934;
  conductor_C ID_3934;
  conductor_N ID_3934;
  spacing ID_194;
}
object line_configuration {
  name ID_161;
  conductor_C ID_12601;
  conductor_N ID_12601;
  spacing ID_197;
}
object line_configuration {
  name ID_162;
  conductor_B ID_12601;
  conductor_N ID_12601;
  spacing ID_198;
}
object line_configuration {
  name ID_163;
  conductor_A ID_3932;
  conductor_B ID_3932;
  conductor_N ID_3932;
  spacing ID_196;
}
object line_configuration {
  name ID_164;
  conductor_B ID_12605;
  conductor_N ID_12605;
  spacing ID_198;
}
object line_configuration {
  name ID_165;
  conductor_A ID_12601;
  conductor_N ID_12601;
  spacing ID_199;
}
object line_configuration {
  name ID_166;
  conductor_C ID_12604;
  conductor_N ID_12604;
  spacing ID_197;
}
object line_configuration {
  name ID_167;
  conductor_B ID_3933;
  conductor_C ID_3933;
  conductor_N ID_3933;
  spacing ID_195;
}
object line_configuration {
  name ID_168;
  conductor_A ID_3935;
  conductor_B ID_3935;
  conductor_C ID_3935;
  conductor_N ID_3935;
  spacing ID_193;
}
object line_configuration {
  name ID_169;
  conductor_A ID_12601;
  conductor_B ID_12601;
  conductor_C ID_12601;
  conductor_N ID_12601;
  spacing ID_193;
}
object line_configuration {
  name ID_170;
  conductor_B ID_12604;
  conductor_N ID_12604;
  spacing ID_198;
}
object line_configuration {
  name ID_171;
  conductor_A ID_12605;
  conductor_N ID_12605;
  spacing ID_199;
}
object line_configuration {
  name ID_172;
  conductor_B ID_3934;
  conductor_C ID_3934;
  conductor_N ID_3934;
  spacing ID_195;
}
object line_configuration {
  name ID_173;
  conductor_B ID_12605;
  conductor_C ID_12605;
  conductor_N ID_12605;
  spacing ID_195;
}
object line_configuration {
  name ID_174;
  conductor_C ID_12605;
  conductor_N ID_12605;
  spacing ID_197;
}
object line_configuration {
  name ID_175;
  conductor_B ID_12601;
  conductor_C ID_12601;
  conductor_N ID_12601;
  spacing ID_195;
}
object line_configuration {
  name ID_176;
  conductor_A ID_12601;
  conductor_B ID_12601;
  conductor_N ID_12601;
  spacing ID_196;
}
object line_configuration {
  name ID_177;
  conductor_A ID_12605;
  conductor_B ID_12605;
  conductor_N ID_12605;
  spacing ID_196;
}
object line_configuration {
  name ID_178;
  conductor_B ID_3933;
  conductor_N ID_3933;
  spacing ID_198;
}
object line_configuration {
  name ID_179;
  conductor_C ID_3932;
  conductor_N ID_3932;
  spacing ID_197;
}
object line_configuration {
  name ID_180;
  conductor_A ID_3936;
  conductor_B ID_3936;
  conductor_C ID_3936;
  conductor_N ID_3936;
  spacing ID_193;
}
object line_configuration {
  name ID_181;
  conductor_A ID_12604;
  conductor_N ID_12604;
  spacing ID_199;
}
object line_configuration {
  name ID_182;
  conductor_A ID_3934;
  conductor_B ID_3934;
  conductor_N ID_3934;
  spacing ID_196;
}
object line_configuration {
  name ID_183;
  conductor_A ID_12606;
  conductor_B ID_12606;
  conductor_C ID_12606;
  conductor_N ID_12606;
  spacing ID_193;
}
object line_configuration {
  name ID_184;
  conductor_A ID_12606;
  conductor_B ID_12606;
  conductor_C ID_12606;
  conductor_N ID_12606;
  spacing ID_200;
}
object line_configuration {
  name ID_185;
  conductor_A ID_12607;
  conductor_B ID_12607;
  conductor_C ID_12607;
  conductor_N ID_12607;
  spacing ID_193;
}
object line_configuration {
  name ID_186;
  conductor_A ID_12604;
  conductor_C ID_12604;
  conductor_N ID_12604;
  spacing ID_194;
}
object line_configuration {
  name ID_187;
  conductor_A ID_12604;
  conductor_B ID_12604;
  conductor_N ID_12604;
  spacing ID_196;
}
object line_configuration {
  name ID_188;
  conductor_A ID_12605;
  conductor_B ID_12605;
  conductor_C ID_12605;
  conductor_N ID_12605;
  spacing ID_193;
}
object line_configuration {
  name ID_189;
  conductor_A ID_12608;
  conductor_B ID_12608;
  conductor_C ID_12608;
  conductor_N ID_12608;
  spacing ID_193;
}
object line_configuration {
  name ID_190;
  conductor_B ID_12607;
  conductor_N ID_12607;
  spacing ID_198;
}
object line_configuration {
  name ID_191;
  conductor_A ID_12607;
  conductor_C ID_12607;
  conductor_N ID_12607;
  spacing ID_194;
}
object line_configuration {
  name ID_192;
  conductor_C ID_12607;
  conductor_N ID_12607;
  spacing ID_197;
}
object triplex_line_conductor {
  name triplex_4/0_aa;
  resistance 0.48;
  geometric_mean_radius 0.0158;
  rating.summer.continuous 1000.0;
  rating.summer.emergency 1000.0;
  rating.winter.continuous 1000.0;
  rating.winter.emergency 1000.0;
}
object triplex_line_configuration {
  name ID_5773;
  conductor_1 triplex_4/0_aa;
  conductor_2 triplex_4/0_aa;
  conductor_N triplex_4/0_aa;
  insulation_thickness 0.08;
  diameter 0.522;
}
object underground_line_conductor {
  name ID_12601;
  rating.summer.continuous 101.0;
  outer_diameter 1.021;
  conductor_gmr 0.00905 ft;
  conductor_diameter 0.283;
  conductor_resistance 1.4124;
  neutral_gmr 0.00208 ft;
  neutral_resistance 14.87;
  neutral_diameter 0.0641;
  neutral_strands 7.0;
  insulation_relative_permitivitty 2.3;
}
object underground_line_conductor {
  name ID_12602;
  rating.summer.continuous 488.0;
  outer_diameter 2.15;
  conductor_gmr 0.0371 ft;
  conductor_diameter 1.152;
  conductor_resistance 0.091872;
  neutral_gmr 0.00330 ft;
  neutral_resistance 5.9026;
  neutral_diameter 0.1019;
  neutral_strands 20.0;
  insulation_relative_permitivitty 2.3;
}
object underground_line_conductor {
  name ID_12603;
  rating.summer.continuous 425.0;
  outer_diameter 1.96;
  conductor_gmr 0.0321 ft;
  conductor_diameter 0.998;
  conductor_resistance 0.122496;
  neutral_gmr 0.00330 ft;
  neutral_resistance 5.9026;
  neutral_diameter 0.1019;
  neutral_strands 15.0;
  insulation_relative_permitivitty 2.3;
}
object underground_line_conductor {
  name ID_12604;
  rating.summer.continuous 142.0;
  outer_diameter 1.27;
  conductor_gmr 0.01142 ft;
  conductor_diameter 0.362;
  conductor_resistance 0.88704;
  neutral_gmr 0.00208 ft;
  neutral_resistance 14.87;
  neutral_diameter 0.0641;
  neutral_strands 16.0;
  insulation_relative_permitivitty 2.3;
}
object underground_line_conductor {
  name ID_12605;
  rating.summer.continuous 112.0;
  outer_diameter 1.09;
  conductor_gmr 0.0088 ft;
  conductor_diameter 0.292;
  conductor_resistance 1.38336;
  neutral_gmr 0.00208 ft;
  neutral_resistance 14.87;
  neutral_diameter 0.0641;
  neutral_strands 6.0;
  insulation_relative_permitivitty 2.3;
}
object underground_line_conductor {
  name ID_12606;
  rating.summer.continuous 775.0;
  outer_diameter 1.87;
  conductor_gmr 0.0371 ft;
  conductor_diameter 1.15;
  conductor_resistance 0.1162;
  shield_gmr 0.069167;
  shield_resistance 2.0135;
  shield_thickness 0.005;
  shield_diameter 1.66;
  insulation_relative_permitivitty 2.3;
}
object underground_line_conductor {
  name ID_12607;
  rating.summer.continuous 214.0;
  outer_diameter 1.32;
  conductor_gmr 0.0177 ft;
  conductor_diameter 0.528;
  conductor_resistance 0.433488;
  neutral_gmr 0.00208 ft;
  neutral_resistance 14.87;
  neutral_diameter 0.0641;
  neutral_strands 11.0;
  insulation_relative_permitivitty 2.3;
}
object underground_line_conductor {
  name ID_12608;
  rating.summer.continuous 662.0;
  outer_diameter 2.291;
  conductor_gmr 0.03592 ft;
  conductor_diameter 1.117;
  conductor_resistance 0.057024;
  neutral_gmr 0.00330 ft;
  neutral_resistance 5.9026;
  neutral_diameter 0.1019;
  neutral_strands 20.0;
  insulation_relative_permitivitty 2.3;
}
object fuse {
  name R3_12_47_3_fuse_1;
// downstream 14.68 kva on BCS
  phases BCN;
  from R3_12_47_3_node_12;
  to R3_12_47_3_node_13;
  current_limit 40;
  status CLOSED;
  mean_replacement_time 3600;
}
object fuse {
  name R3_12_47_3_fuse_2;
// downstream 246.11 kva on ABCS
  phases ABCN;
  from R3_12_47_3_node_4;
  to R3_12_47_3_node_16;
  current_limit 40;
  status CLOSED;
  mean_replacement_time 3600;
}
object fuse {
  name R3_12_47_3_fuse_3;
// downstream 87.92 kva on BCS
  phases BCN;
  from R3_12_47_3_node_32;
  to R3_12_47_3_node_33;
  current_limit 40;
  status CLOSED;
  mean_replacement_time 3600;
}
object fuse {
  name R3_12_47_3_fuse_4;
// downstream 7.34 kva on BCS
  phases BCN;
  from R3_12_47_3_node_87;
  to R3_12_47_3_node_88;
  current_limit 40;
  status CLOSED;
  mean_replacement_time 3600;
}
object fuse {
  name R3_12_47_3_fuse_5;
// downstream 44.04 kva on BCS
  phases BCN;
  from R3_12_47_3_node_99;
  to R3_12_47_3_node_100;
  current_limit 40;
  status CLOSED;
  mean_replacement_time 3600;
}
object fuse {
  name R3_12_47_3_fuse_6;
// downstream 44.07 kva on ABCS
  phases ABCN;
  from R3_12_47_3_node_132;
  to R3_12_47_3_node_133;
  current_limit 40;
  status CLOSED;
  mean_replacement_time 3600;
}
object fuse {
  name R3_12_47_3_fuse_7;
// downstream 227.64 kva on AC
  phases ABCN;
  from R3_12_47_3_node_151;
  to R3_12_47_3_node_152;
  current_limit 40;
  status CLOSED;
  mean_replacement_time 3600;
}
object fuse {
  name R3_12_47_3_fuse_8;
// downstream 7.34 kva on AC
  phases ACN;
  from R3_12_47_3_node_163;
  to R3_12_47_3_node_164;
  current_limit 40;
  status CLOSED;
  mean_replacement_time 3600;
}
object fuse {
  name R3_12_47_3_fuse_9;
// downstream 14.70 kva on AC
  phases ACN;
  from R3_12_47_3_node_176;
  to R3_12_47_3_node_177;
  current_limit 40;
  status CLOSED;
  mean_replacement_time 3600;
}
object fuse {
  name R3_12_47_3_fuse_10;
// downstream 7.34 kva on AC
  phases ACN;
  from R3_12_47_3_node_188;
  to R3_12_47_3_node_189;
  current_limit 40;
  status CLOSED;
  mean_replacement_time 3600;
}
object fuse {
  name R3_12_47_3_fuse_11;
// downstream 88.13 kva on BCS
  phases ABCN;
  from R3_12_47_3_node_224;
  to R3_12_47_3_node_225;
  current_limit 40;
  status CLOSED;
  mean_replacement_time 3600;
}
object fuse {
  name R3_12_47_3_fuse_12;
// downstream 22.02 kva on ACS
  phases ACN;
  from R3_12_47_3_node_243;
  to R3_12_47_3_node_244;
  current_limit 40;
  status CLOSED;
  mean_replacement_time 3600;
}
object fuse {
  name R3_12_47_3_fuse_13;
// downstream 7.34 kva on AS
  phases AN;
  from R3_12_47_3_node_252;
  to R3_12_47_3_node_253;
  current_limit 40;
  status CLOSED;
  mean_replacement_time 3600;
}
object fuse {
  name R3_12_47_3_fuse_14;
// downstream 22.03 kva on CS
  phases CN;
  from R3_12_47_3_node_266;
  to R3_12_47_3_node_279;
  current_limit 40;
  status CLOSED;
  mean_replacement_time 3600;
}
object fuse {
  name R3_12_47_3_fuse_15;
// downstream 465.57 kva on ABCS
  phases ABCN;
  from R3_12_47_3_node_287;
  to R3_12_47_3_node_288;
  current_limit 65;
  status CLOSED;
  mean_replacement_time 3600;
}
object fuse {
  name R3_12_47_3_fuse_16;
// downstream 11.78 kva on ACS
  phases ACN;
  from R3_12_47_3_node_280;
  to R3_12_47_3_node_296;
  current_limit 40;
  status CLOSED;
  mean_replacement_time 3600;
}
object fuse {
  name R3_12_47_3_fuse_17;
// downstream 45.58 kva on ABC
  phases ABCN;
  from R3_12_47_3_node_302;
  to R3_12_47_3_node_303;
  current_limit 40;
  status CLOSED;
  mean_replacement_time 3600;
}
object fuse {
  name R3_12_47_3_fuse_18;
// downstream 10.24 kva on AC
  phases ACN;
  from R3_12_47_3_node_305;
  to R3_12_47_3_node_306;
  current_limit 40;
  status CLOSED;
  mean_replacement_time 3600;
}
object fuse {
  name R3_12_47_3_fuse_19;
// downstream 66.17 kva on ABCS
  phases ABCN;
  from R3_12_47_3_node_319;
  to R3_12_47_3_node_320;
  current_limit 40;
  status CLOSED;
  mean_replacement_time 3600;
}
object fuse {
  name R3_12_47_3_fuse_20;
// downstream 88.19 kva on ABCS
  phases ABCN;
  from R3_12_47_3_node_324;
  to R3_12_47_3_node_325;
  current_limit 40;
  status CLOSED;
  mean_replacement_time 3600;
}
object fuse {
  name R3_12_47_3_fuse_21;
// downstream 14.69 kva on BS
  phases BN;
  from R3_12_47_3_node_310;
  to R3_12_47_3_node_326;
  current_limit 40;
  status CLOSED;
  mean_replacement_time 3600;
}
object fuse {
  name R3_12_47_3_fuse_22;
// downstream 54.29 kva on ABS
  phases ABN;
  from R3_12_47_3_node_343;
  to R3_12_47_3_node_344;
  current_limit 40;
  status CLOSED;
  mean_replacement_time 3600;
}
object fuse {
  name R3_12_47_3_fuse_23;
// downstream 7.34 kva on AS
  phases AN;
  from R3_12_47_3_node_357;
  to R3_12_47_3_node_358;
  current_limit 40;
  status CLOSED;
  mean_replacement_time 3600;
}
object fuse {
  name R3_12_47_3_fuse_24;
// downstream 14.68 kva on AS
  phases AN;
  from R3_12_47_3_node_364;
  to R3_12_47_3_node_365;
  current_limit 40;
  status CLOSED;
  mean_replacement_time 3600;
}
object fuse {
  name R3_12_47_3_fuse_25;
// downstream 66.06 kva on BCS
  phases BCN;
  from R3_12_47_3_node_368;
  to R3_12_47_3_node_369;
  current_limit 40;
  status CLOSED;
  mean_replacement_time 3600;
}
object fuse {
  name R3_12_47_3_fuse_26;
// downstream 14.68 kva on BCS
  phases BCN;
  from R3_12_47_3_node_372;
  to R3_12_47_3_node_373;
  current_limit 40;
  status CLOSED;
  mean_replacement_time 3600;
}
object fuse {
  name R3_12_47_3_fuse_27;
// downstream 7.34 kva on CS
  phases CN;
  from R3_12_47_3_node_379;
  to R3_12_47_3_node_380;
  current_limit 40;
  status CLOSED;
  mean_replacement_time 3600;
}
object fuse {
  name R3_12_47_3_fuse_28;
// downstream 44.06 kva on ACS
  phases ACN;
  from R3_12_47_3_node_406;
  to R3_12_47_3_node_407;
  current_limit 40;
  status CLOSED;
  mean_replacement_time 3600;
}
object fuse {
  name R3_12_47_3_fuse_29;
// downstream 38.23 kva on ABS
  phases ABN;
  from R3_12_47_3_node_425;
  to R3_12_47_3_node_426;
  current_limit 40;
  status CLOSED;
  mean_replacement_time 3600;
}
object fuse {
  name R3_12_47_3_fuse_30;
// downstream 58.72 kva on ACS
  phases ACN;
  from R3_12_47_3_node_443;
  to R3_12_47_3_node_444;
  current_limit 40;
  status CLOSED;
  mean_replacement_time 3600;
}
object fuse {
  name R3_12_47_3_fuse_31;
// downstream 426.02 kva on ABCS
  phases ABCN;
  from R3_12_47_3_node_459;
  to R3_12_47_3_node_460;
  current_limit 65;
  status CLOSED;
  mean_replacement_time 3600;
}
object fuse {
  name R3_12_47_3_fuse_32;
// downstream 7.34 kva on ACS
  phases ACN;
  from R3_12_47_3_node_486;
  to R3_12_47_3_node_487;
  current_limit 40;
  status CLOSED;
  mean_replacement_time 3600;
}
object fuse {
  name R3_12_47_3_fuse_33;
// downstream 9.93 kva on ACS
  phases ACN;
  from R3_12_47_3_node_495;
  to R3_12_47_3_node_496;
  current_limit 40;
  status CLOSED;
  mean_replacement_time 3600;
}
object fuse {
  name R3_12_47_3_fuse_34;
// downstream 19.12 kva on BCS
  phases BCN;
  from R3_12_47_3_node_498;
  to R3_12_47_3_node_499;
  current_limit 40;
  status CLOSED;
  mean_replacement_time 3600;
}
object fuse {
  name R3_12_47_3_fuse_35;
// downstream 29.36 kva on ABS
  phases ABN;
  from R3_12_47_3_node_513;
  to R3_12_47_3_node_514;
  current_limit 40;
  status CLOSED;
  mean_replacement_time 3600;
}
object fuse {
  name R3_12_47_3_fuse_36;
// downstream 96.96 kva on ABS
  phases ABN;
  from R3_12_47_3_node_535;
  to R3_12_47_3_node_536;
  current_limit 40;
  status CLOSED;
  mean_replacement_time 3600;
}
object fuse {
  name R3_12_47_3_fuse_37;
// downstream 36.70 kva on ABS
  phases ABN;
  from R3_12_47_3_node_554;
  to R3_12_47_3_node_555;
  current_limit 40;
  status CLOSED;
  mean_replacement_time 3600;
}
object fuse {
  name R3_12_47_3_fuse_38;
// downstream 14.68 kva on ABS
  phases ABN;
  from R3_12_47_3_node_569;
  to R3_12_47_3_node_570;
  current_limit 40;
  status CLOSED;
  mean_replacement_time 3600;
}
object fuse {
  name R3_12_47_3_fuse_39;
// downstream 7.35 kva on ABS
  phases ABN;
  from R3_12_47_3_node_597;
  to R3_12_47_3_node_598;
  current_limit 40;
  status CLOSED;
  mean_replacement_time 3600;
}
object fuse {
  name R3_12_47_3_fuse_40;
// downstream 7.34 kva on BCS
  phases BCN;
  from R3_12_47_3_node_612;
  to R3_12_47_3_node_613;
  current_limit 40;
  status CLOSED;
  mean_replacement_time 3600;
}
object fuse {
  name R3_12_47_3_fuse_41;
// downstream 139.46 kva on ACS
  phases ACN;
  from R3_12_47_3_node_619;
  to R3_12_47_3_node_620;
  current_limit 40;
  status CLOSED;
  mean_replacement_time 3600;
}
object fuse {
  name R3_12_47_3_fuse_42;
// downstream 51.38 kva on ACS
  phases ACN;
  from R3_12_47_3_node_629;
  to R3_12_47_3_node_630;
  current_limit 40;
  status CLOSED;
  mean_replacement_time 3600;
}
object fuse {
  name R3_12_47_3_fuse_43;
// downstream 14.68 kva on ACS
  phases ACN;
  from R3_12_47_3_node_644;
  to R3_12_47_3_node_645;
  current_limit 40;
  status CLOSED;
  mean_replacement_time 3600;
}
object fuse {
  name R3_12_47_3_fuse_44;
// downstream 29.38 kva on BS
  phases ABCN;
  from R3_12_47_3_node_704;
  to R3_12_47_3_node_705;
  current_limit 40;
  status CLOSED;
  mean_replacement_time 3600;
}
object fuse {
  name R3_12_47_3_fuse_45;
// downstream 80.49 kva on ABCS
  phases ABCN;
  from R3_12_47_3_node_715;
  to R3_12_47_3_node_716;
  current_limit 40;
  status CLOSED;
  mean_replacement_time 3600;
}
object fuse {
  name R3_12_47_3_fuse_46;
// downstream 256.98 kva on ABCS
  phases ABCN;
  from R3_12_47_3_node_712;
  to R3_12_47_3_node_724;
  current_limit 40;
  status CLOSED;
  mean_replacement_time 3600;
}
object fuse {
  name R3_12_47_3_fuse_47;
// downstream 44.04 kva on ACS
  phases ACN;
  from R3_12_47_3_node_750;
  to R3_12_47_3_node_751;
  current_limit 40;
  status CLOSED;
  mean_replacement_time 3600;
}
object fuse {
  name R3_12_47_3_fuse_48;
// downstream 7.34 kva on ACS
  phases ACN;
  from R3_12_47_3_node_762;
  to R3_12_47_3_node_763;
  current_limit 40;
  status CLOSED;
  mean_replacement_time 3600;
}
object fuse {
  name R3_12_47_3_fuse_49;
// downstream 14.68 kva on ACS
  phases ACN;
  from R3_12_47_3_node_766;
  to R3_12_47_3_node_767;
  current_limit 40;
  status CLOSED;
  mean_replacement_time 3600;
}
object fuse {
  name R3_12_47_3_fuse_50;
// downstream 315.13 kva on ABCS
  phases ABCN;
  from R3_12_47_3_node_700;
  to R3_12_47_3_node_779;
  current_limit 40;
  status CLOSED;
  mean_replacement_time 3600;
}
object fuse {
  name R3_12_47_3_fuse_51;
// downstream 7.34 kva on ACS
  phases ACN;
  from R3_12_47_3_node_783;
  to R3_12_47_3_node_784;
  current_limit 40;
  status CLOSED;
  mean_replacement_time 3600;
}
object fuse {
  name R3_12_47_3_fuse_52;
// downstream 7.34 kva on ACS
  phases ACN;
  from R3_12_47_3_node_787;
  to R3_12_47_3_node_788;
  current_limit 40;
  status CLOSED;
  mean_replacement_time 3600;
}
object fuse {
  name R3_12_47_3_fuse_53;
// downstream 22.02 kva on ACS
  phases ACN;
  from R3_12_47_3_node_792;
  to R3_12_47_3_node_793;
  current_limit 40;
  status CLOSED;
  mean_replacement_time 3600;
}
object fuse {
  name R3_12_47_3_fuse_54;
// downstream 14.69 kva on BS
  phases BN;
  from R3_12_47_3_node_796;
  to R3_12_47_3_node_808;
  current_limit 40;
  status CLOSED;
  mean_replacement_time 3600;
}
object fuse {
  name R3_12_47_3_fuse_55;
// downstream 22.03 kva on AS
  phases AN;
  from R3_12_47_3_node_811;
  to R3_12_47_3_node_812;
  current_limit 40;
  status CLOSED;
  mean_replacement_time 3600;
}
object fuse {
  name R3_12_47_3_fuse_56;
// downstream 147.87 kva on ACS
  phases ACN;
  from R3_12_47_3_node_820;
  to R3_12_47_3_node_821;
  current_limit 40;
  status CLOSED;
  mean_replacement_time 3600;
}
object fuse {
  name R3_12_47_3_fuse_57;
// downstream 22.02 kva on ACS
  phases ACN;
  from R3_12_47_3_node_829;
  to R3_12_47_3_node_830;
  current_limit 40;
  status CLOSED;
  mean_replacement_time 3600;
}
object fuse {
  name R3_12_47_3_fuse_58;
// downstream 22.02 kva on ACS
  phases ACN;
  from R3_12_47_3_node_837;
  to R3_12_47_3_node_838;
  current_limit 40;
  status CLOSED;
  mean_replacement_time 3600;
}
object fuse {
  name R3_12_47_3_fuse_59;
// downstream 7.34 kva on ACS
  phases ACN;
  from R3_12_47_3_node_859;
  to R3_12_47_3_node_860;
  current_limit 40;
  status CLOSED;
  mean_replacement_time 3600;
}
object fuse {
  name R3_12_47_3_fuse_60;
// downstream 7.34 kva on ABS
  phases ABN;
  from R3_12_47_3_node_867;
  to R3_12_47_3_node_868;
  current_limit 40;
  status CLOSED;
  mean_replacement_time 3600;
}
object fuse {
  name R3_12_47_3_fuse_61;
// downstream 184.58 kva on ACS
  phases ACN;
  from R3_12_47_3_node_809;
  to R3_12_47_3_node_870;
  current_limit 40;
  status CLOSED;
  mean_replacement_time 3600;
}
object fuse {
  name R3_12_47_3_fuse_62;
// downstream 7.34 kva on ABS
  phases ABN;
  from R3_12_47_3_node_880;
  to R3_12_47_3_node_881;
  current_limit 40;
  status CLOSED;
  mean_replacement_time 3600;
}
object fuse {
  name R3_12_47_3_fuse_63;
// downstream 84.33 kva on ABCS
  phases ABCN;
  from R3_12_47_3_node_890;
  to R3_12_47_3_node_891;
  current_limit 40;
  status CLOSED;
  mean_replacement_time 3600;
}
object fuse {
  name R3_12_47_3_fuse_64;
// downstream 7.34 kva on ABS
  phases ABN;
  from R3_12_47_3_node_895;
  to R3_12_47_3_node_896;
  current_limit 40;
  status CLOSED;
  mean_replacement_time 3600;
}
object fuse {
  name R3_12_47_3_fuse_65;
// downstream 7.34 kva on ABS
  phases ABN;
  from R3_12_47_3_node_903;
  to R3_12_47_3_node_904;
  current_limit 40;
  status CLOSED;
  mean_replacement_time 3600;
}
object fuse {
  name R3_12_47_3_fuse_66;
// downstream 260.05 kva on ABCS
  phases ABCN;
  from R3_12_47_3_node_907;
  to R3_12_47_3_node_908;
  current_limit 40;
  status CLOSED;
  mean_replacement_time 3600;
}
object fuse {
  name R3_12_47_3_fuse_67;
// downstream 7.34 kva on ABS
  phases ABCN;
  from R3_12_47_3_node_913;
  to R3_12_47_3_node_914;
  current_limit 40;
  status CLOSED;
  mean_replacement_time 3600;
}
object fuse {
  name R3_12_47_3_fuse_68;
// downstream 148.34 kva on BCS
  phases BCN;
  from R3_12_47_3_node_925;
  to R3_12_47_3_node_926;
  current_limit 40;
  status CLOSED;
  mean_replacement_time 3600;
}
object fuse {
  name R3_12_47_3_fuse_69;
// downstream 14.68 kva on BCS
  phases BCN;
  from R3_12_47_3_node_930;
  to R3_12_47_3_node_931;
  current_limit 40;
  status CLOSED;
  mean_replacement_time 3600;
}
object fuse {
  name R3_12_47_3_fuse_70;
// downstream 7.34 kva on BCS
  phases BCN;
  from R3_12_47_3_node_945;
  to R3_12_47_3_node_946;
  current_limit 40;
  status CLOSED;
  mean_replacement_time 3600;
}
object fuse {
  name R3_12_47_3_fuse_71;
// downstream 22.02 kva on BCS
  phases BCN;
  from R3_12_47_3_node_949;
  to R3_12_47_3_node_950;
  current_limit 40;
  status CLOSED;
  mean_replacement_time 3600;
}
object fuse {
  name R3_12_47_3_fuse_72;
// downstream 7.34 kva on BCS
  phases BCN;
  from R3_12_47_3_node_958;
  to R3_12_47_3_node_959;
  current_limit 40;
  status CLOSED;
  mean_replacement_time 3600;
}
object fuse {
  name R3_12_47_3_fuse_73;
// downstream 22.02 kva on ACS
  phases ACN;
  from R3_12_47_3_node_971;
  to R3_12_47_3_node_972;
  current_limit 40;
  status CLOSED;
  mean_replacement_time 3600;
}
object fuse {
  name R3_12_47_3_fuse_74;
// downstream 7.34 kva on BCS
  phases BCN;
  from R3_12_47_3_node_980;
  to R3_12_47_3_node_981;
  current_limit 40;
  status CLOSED;
  mean_replacement_time 3600;
}
object fuse {
  name R3_12_47_3_fuse_75;
// downstream 29.73 kva on ABCS
  phases ABCN;
  from R3_12_47_3_node_994;
  to R3_12_47_3_node_1014;
  current_limit 40;
  status CLOSED;
  mean_replacement_time 3600;
}
object fuse {
  name R3_12_47_3_fuse_76;
// downstream 45.43 kva on BCS
  phases BCN;
  from R3_12_47_3_node_1017;
  to R3_12_47_3_node_1018;
  current_limit 40;
  status CLOSED;
  mean_replacement_time 3600;
}
object fuse {
  name R3_12_47_3_fuse_77;
// downstream 51.38 kva on ABS
  phases ABN;
  from R3_12_47_3_node_1037;
  to R3_12_47_3_node_1038;
  current_limit 40;
  status CLOSED;
  mean_replacement_time 3600;
}
object fuse {
  name R3_12_47_3_fuse_78;
// downstream 7.34 kva on ABS
  phases ABN;
  from R3_12_47_3_node_1047;
  to R3_12_47_3_node_1048;
  current_limit 40;
  status CLOSED;
  mean_replacement_time 3600;
}
object fuse {
  name R3_12_47_3_fuse_79;
// downstream 22.02 kva on ABS
  phases ABN;
  from R3_12_47_3_node_1049;
  to R3_12_47_3_node_1050;
  current_limit 40;
  status CLOSED;
  mean_replacement_time 3600;
}
object fuse {
  name R3_12_47_3_fuse_80;
// downstream 22.02 kva on BCS
  phases BCN;
  from R3_12_47_3_node_1065;
  to R3_12_47_3_node_1066;
  current_limit 40;
  status CLOSED;
  mean_replacement_time 3600;
}
object fuse {
  name R3_12_47_3_fuse_81;
// downstream 286.33 kva on ABCS
  phases ABCN;
  from R3_12_47_3_node_1085;
  to R3_12_47_3_node_1086;
  current_limit 40;
  status CLOSED;
  mean_replacement_time 3600;
}
object fuse {
  name R3_12_47_3_fuse_82;
// downstream 7.34 kva on ABS
  phases ABN;
  from R3_12_47_3_node_1129;
  to R3_12_47_3_node_1130;
  current_limit 40;
  status CLOSED;
  mean_replacement_time 3600;
}
object fuse {
  name R3_12_47_3_fuse_83;
// downstream 14.69 kva on ABS
  phases ABN;
  from R3_12_47_3_node_1133;
  to R3_12_47_3_node_1134;
  current_limit 40;
  status CLOSED;
  mean_replacement_time 3600;
}
object fuse {
  name R3_12_47_3_fuse_84;
// downstream 14.68 kva on ABS
  phases ABN;
  from R3_12_47_3_node_1156;
  to R3_12_47_3_node_1157;
  current_limit 40;
  status CLOSED;
  mean_replacement_time 3600;
}
object fuse {
  name R3_12_47_3_fuse_85;
// downstream 7.34 kva on ABS
  phases ABN;
  from R3_12_47_3_node_1163;
  to R3_12_47_3_node_1164;
  current_limit 40;
  status CLOSED;
  mean_replacement_time 3600;
}
object fuse {
  name R3_12_47_3_fuse_86;
// downstream 120.35 kva on ABS
  phases ABN;
  from R3_12_47_3_node_1126;
  to R3_12_47_3_node_1174;
  current_limit 40;
  status CLOSED;
  mean_replacement_time 3600;
}
object fuse {
  name R3_12_47_3_fuse_87;
// downstream 22.02 kva on BCS
  phases BCN;
  from R3_12_47_3_node_1217;
  to R3_12_47_3_node_1218;
  current_limit 40;
  status CLOSED;
  mean_replacement_time 3600;
}
object fuse {
  name R3_12_47_3_fuse_88;
// downstream 455.61 kva on ABCS
  phases ABCN;
  from R3_12_47_3_node_1227;
  to R3_12_47_3_node_1228;
  current_limit 65;
  status CLOSED;
  mean_replacement_time 3600;
}
object fuse {
  name R3_12_47_3_fuse_89;
// downstream 7.34 kva on BCS
  phases BCN;
  from R3_12_47_3_node_1232;
  to R3_12_47_3_node_1233;
  current_limit 40;
  status CLOSED;
  mean_replacement_time 3600;
}
object fuse {
  name R3_12_47_3_fuse_90;
// downstream 7.34 kva on BCS
  phases BCN;
  from R3_12_47_3_node_1266;
  to R3_12_47_3_node_1267;
  current_limit 40;
  status CLOSED;
  mean_replacement_time 3600;
}
object fuse {
  name R3_12_47_3_fuse_91;
// downstream 22.02 kva on BCS
  phases BCN;
  from R3_12_47_3_node_1282;
  to R3_12_47_3_node_1285;
  current_limit 40;
  status CLOSED;
  mean_replacement_time 3600;
}
object fuse {
  name R3_12_47_3_fuse_92;
// downstream 7.34 kva on BCS
  phases BCN;
  from R3_12_47_3_node_1289;
  to R3_12_47_3_node_1290;
  current_limit 40;
  status CLOSED;
  mean_replacement_time 3600;
}
object fuse {
  name R3_12_47_3_fuse_93;
// downstream 14.68 kva on ABS
  phases ABN;
  from R3_12_47_3_node_1304;
  to R3_12_47_3_node_1305;
  current_limit 40;
  status CLOSED;
  mean_replacement_time 3600;
}
object fuse {
  name R3_12_47_3_fuse_94;
// downstream 14.68 kva on ABS
  phases ABN;
  from R3_12_47_3_node_1306;
  to R3_12_47_3_node_1307;
  current_limit 40;
  status CLOSED;
  mean_replacement_time 3600;
}
object fuse {
  name R3_12_47_3_fuse_95;
// downstream 14.68 kva on ACS
  phases ACN;
  from R3_12_47_3_node_1317;
  to R3_12_47_3_node_1318;
  current_limit 40;
  status CLOSED;
  mean_replacement_time 3600;
}
object fuse {
  name R3_12_47_3_fuse_96;
// downstream 129.24 kva on ACS
  phases ACN;
  from R3_12_47_3_node_1324;
  to R3_12_47_3_node_1325;
  current_limit 40;
  status CLOSED;
  mean_replacement_time 3600;
}
object fuse {
  name R3_12_47_3_fuse_97;
// downstream 55.47 kva on ABCS
  phases ABCN;
  from R3_12_47_3_node_1310;
  to R3_12_47_3_node_1331;
  current_limit 40;
  status CLOSED;
  mean_replacement_time 3600;
}
object fuse {
  name R3_12_47_3_fuse_98;
// downstream 7.34 kva on ABS
  phases ABN;
  from R3_12_47_3_node_1356;
  to R3_12_47_3_node_1357;
  current_limit 40;
  status CLOSED;
  mean_replacement_time 3600;
}
object fuse {
  name R3_12_47_3_fuse_99;
// downstream 14.68 kva on ACS
  phases ACN;
  from R3_12_47_3_node_1388;
  to R3_12_47_3_node_1389;
  current_limit 40;
  status CLOSED;
  mean_replacement_time 3600;
}
object fuse {
  name R3_12_47_3_fuse_100;
// downstream 68.97 kva on ABS
  phases ABN;
  from R3_12_47_3_node_1392;
  to R3_12_47_3_node_1393;
  current_limit 40;
  status CLOSED;
  mean_replacement_time 3600;
}
object fuse {
  name R3_12_47_3_fuse_101;
// downstream 44.04 kva on ABS
  phases ABN;
  from R3_12_47_3_node_1399;
  to R3_12_47_3_node_1400;
  current_limit 40;
  status CLOSED;
  mean_replacement_time 3600;
}
object fuse {
  name R3_12_47_3_fuse_102;
// downstream 25.69 kva on BCS
  phases BCN;
  from R3_12_47_3_node_1426;
  to R3_12_47_3_node_1427;
  current_limit 40;
  status CLOSED;
  mean_replacement_time 3600;
}
object fuse {
  name R3_12_47_3_fuse_103;
// downstream 44.04 kva on BCS
  phases BCN;
  from R3_12_47_3_node_1434;
  to R3_12_47_3_node_1435;
  current_limit 40;
  status CLOSED;
  mean_replacement_time 3600;
}
object fuse {
  name R3_12_47_3_fuse_104;
// downstream 7.34 kva on ACS
  phases ACN;
  from R3_12_47_3_node_1420;
  to R3_12_47_3_node_1436;
  current_limit 40;
  status CLOSED;
  mean_replacement_time 3600;
}
object fuse {
  name R3_12_47_3_fuse_105;
// downstream 51.43 kva on AS
  phases AN;
  from R3_12_47_3_node_1450;
  to R3_12_47_3_node_1451;
  current_limit 40;
  status CLOSED;
  mean_replacement_time 3600;
}
object fuse {
  name R3_12_47_3_fuse_106;
// downstream 110.10 kva on ABCS
  phases ABCN;
  from R3_12_47_3_node_1474;
  to R3_12_47_3_node_1475;
  current_limit 40;
  status CLOSED;
  mean_replacement_time 3600;
}
object fuse {
  name R3_12_47_3_fuse_107;
// downstream 139.62 kva on ABC
  phases ABCN;
  from R3_12_47_3_node_1505;
  to R3_12_47_3_node_1506;
  current_limit 40;
  status CLOSED;
  mean_replacement_time 3600;
}
object fuse {
  name R3_12_47_3_fuse_108;
// downstream 7.34 kva on BC
  phases BCN;
  from R3_12_47_3_node_1511;
  to R3_12_47_3_node_1512;
  current_limit 40;
  status CLOSED;
  mean_replacement_time 3600;
}
object fuse {
  name R3_12_47_3_fuse_109;
// downstream 14.68 kva on ABS
  phases ABN;
  from R3_12_47_3_node_1523;
  to R3_12_47_3_node_1524;
  current_limit 40;
  status CLOSED;
  mean_replacement_time 3600;
}
object fuse {
  name R3_12_47_3_fuse_110;
// downstream 29.36 kva on ABS
  phases ABN;
  from R3_12_47_3_node_1530;
  to R3_12_47_3_node_1531;
  current_limit 40;
  status CLOSED;
  mean_replacement_time 3600;
}
object fuse {
  name R3_12_47_3_fuse_111;
// downstream 22.02 kva on ABC
  phases ABCN;
  from R3_12_47_3_node_1542;
  to R3_12_47_3_node_1543;
  current_limit 40;
  status CLOSED;
  mean_replacement_time 3600;
}
object fuse {
  name R3_12_47_3_fuse_112;
// downstream 164.02 kva on ABCS
  phases ABCN;
  from R3_12_47_3_node_1550;
  to R3_12_47_3_node_1551;
  current_limit 40;
  status CLOSED;
  mean_replacement_time 3600;
}
object fuse {
  name R3_12_47_3_fuse_113;
// downstream 129.78 kva on ABCS
  phases ABCN;
  from R3_12_47_3_node_1555;
  to R3_12_47_3_node_1556;
  current_limit 40;
  status CLOSED;
  mean_replacement_time 3600;
}
object fuse {
  name R3_12_47_3_fuse_114;
// downstream 14.68 kva on ABS
  phases ABN;
  from R3_12_47_3_node_1580;
  to R3_12_47_3_node_1581;
  current_limit 40;
  status CLOSED;
  mean_replacement_time 3600;
}
object fuse {
  name R3_12_47_3_fuse_115;
// downstream 22.02 kva on ABS
  phases ABN;
  from R3_12_47_3_node_1588;
  to R3_12_47_3_node_1589;
  current_limit 40;
  status CLOSED;
  mean_replacement_time 3600;
}
object fuse {
  name R3_12_47_3_fuse_116;
// downstream 22.02 kva on ABS
  phases ABN;
  from R3_12_47_3_node_1612;
  to R3_12_47_3_node_1613;
  current_limit 40;
  status CLOSED;
  mean_replacement_time 3600;
}
object fuse {
  name R3_12_47_3_fuse_117;
// downstream 80.74 kva on ABS
  phases ABN;
  from R3_12_47_3_node_1633;
  to R3_12_47_3_node_1634;
  current_limit 40;
  status CLOSED;
  mean_replacement_time 3600;
}
object fuse {
  name R3_12_47_3_fuse_118;
// downstream 7.34 kva on ABS
  phases ABN;
  from R3_12_47_3_node_1650;
  to R3_12_47_3_node_1651;
  current_limit 40;
  status CLOSED;
  mean_replacement_time 3600;
}
object fuse {
  name R3_12_47_3_fuse_119;
// downstream 7.34 kva on BC
  phases BCN;
  from R3_12_47_3_node_1656;
  to R3_12_47_3_node_1657;
  current_limit 40;
  status CLOSED;
  mean_replacement_time 3600;
}
object fuse {
  name R3_12_47_3_fuse_120;
// downstream 7.34 kva on ABS
  phases ABN;
  from R3_12_47_3_node_1665;
  to R3_12_47_3_node_1666;
  current_limit 40;
  status CLOSED;
  mean_replacement_time 3600;
}
object fuse {
  name R3_12_47_3_fuse_121;
// downstream 244.67 kva on ABC
  phases ABCN;
  from R3_12_47_3_node_1679;
  to R3_12_47_3_node_1680;
  current_limit 40;
  status CLOSED;
  mean_replacement_time 3600;
}
object fuse {
  name R3_12_47_3_fuse_122;
// downstream 469.62 kva on BCS
  phases BCN;
  from R3_12_47_3_node_1688;
  to R3_12_47_3_node_1689;
  current_limit 100;
  status CLOSED;
  mean_replacement_time 3600;
}
object fuse {
  name R3_12_47_3_fuse_123;
// downstream 22.03 kva on BCS
  phases BCN;
  from R3_12_47_3_node_1699;
  to R3_12_47_3_node_1701;
  current_limit 40;
  status CLOSED;
  mean_replacement_time 3600;
}
object fuse {
  name R3_12_47_3_fuse_124;
// downstream 7.34 kva on ACS
  phases ACN;
  from R3_12_47_3_node_1726;
  to R3_12_47_3_node_1727;
  current_limit 40;
  status CLOSED;
  mean_replacement_time 3600;
}
object fuse {
  name R3_12_47_3_fuse_125;
// downstream 626.31 kva on ABCS
  phases ABCN;
  from R3_12_47_3_node_1731;
  to R3_12_47_3_node_1732;
  current_limit 100;
  status CLOSED;
  mean_replacement_time 3600;
}
object fuse {
  name R3_12_47_3_fuse_126;
// downstream 7.34 kva on CS
  phases CN;
  from R3_12_47_3_node_1723;
  to R3_12_47_3_node_1736;
  current_limit 40;
  status CLOSED;
  mean_replacement_time 3600;
}
object fuse {
  name R3_12_47_3_fuse_127;
// downstream 73.40 kva on ABS
  phases ABN;
  from R3_12_47_3_node_1748;
  to R3_12_47_3_node_1759;
  current_limit 40;
  status CLOSED;
  mean_replacement_time 3600;
}
object fuse {
  name R3_12_47_3_fuse_128;
// downstream 14.68 kva on ABS
  phases ABN;
  from R3_12_47_3_node_1768;
  to R3_12_47_3_node_1769;
  current_limit 40;
  status CLOSED;
  mean_replacement_time 3600;
}
object fuse {
  name R3_12_47_3_fuse_129;
// downstream 14.68 kva on AS
  phases AN;
  from R3_12_47_3_node_1760;
  to R3_12_47_3_node_1772;
  current_limit 40;
  status CLOSED;
  mean_replacement_time 3600;
}
object fuse {
  name R3_12_47_3_fuse_130;
// downstream 422.91 kva on ABCS
  phases ABCN;
  from R3_12_47_3_node_1778;
  to R3_12_47_3_node_1779;
  current_limit 65;
  status CLOSED;
  mean_replacement_time 3600;
}
object fuse {
  name R3_12_47_3_fuse_131;
// downstream 95.49 kva on ABCS
  phases ABCN;
  from R3_12_47_3_node_1781;
  to R3_12_47_3_node_1782;
  current_limit 40;
  status CLOSED;
  mean_replacement_time 3600;
}
object fuse {
  name R3_12_47_3_fuse_132;
// downstream 22.02 kva on ABCS
  phases ABCN;
  from R3_12_47_3_node_1800;
  to R3_12_47_3_node_1801;
  current_limit 40;
  status CLOSED;
  mean_replacement_time 3600;
}
object fuse {
  name R3_12_47_3_fuse_133;
// downstream 14.68 kva on ABS
  phases ABN;
  from R3_12_47_3_node_1822;
  to R3_12_47_3_node_1823;
  current_limit 40;
  status CLOSED;
  mean_replacement_time 3600;
}
object fuse {
  name R3_12_47_3_fuse_134;
// downstream 22.02 kva on ACS
  phases ACN;
  from R3_12_47_3_node_1831;
  to R3_12_47_3_node_1832;
  current_limit 40;
  status CLOSED;
  mean_replacement_time 3600;
}
object fuse {
  name R3_12_47_3_fuse_135;
// downstream 687.69 kva on ABCS
  phases ABCN;
  from R3_12_47_3_node_1712;
  to R3_12_47_3_node_1833;
  current_limit 100;
  status CLOSED;
  mean_replacement_time 3600;
}
object fuse {
  name R3_12_47_3_fuse_136;
// downstream 22.02 kva on ABCS
  phases ABCN;
  from R3_12_47_3_node_1853;
  to R3_12_47_3_node_1854;
  current_limit 40;
  status CLOSED;
  mean_replacement_time 3600;
}
object fuse {
  name R3_12_47_3_fuse_137;
// downstream 7.34 kva on BCS
  phases BCN;
  from R3_12_47_3_node_1872;
  to R3_12_47_3_node_1873;
  current_limit 40;
  status CLOSED;
  mean_replacement_time 3600;
}
object fuse {
  name R3_12_47_3_fuse_138;
// downstream 73.40 kva on BCS
  phases BCN;
  from R3_12_47_3_node_1927;
  to R3_12_47_3_node_1928;
  current_limit 40;
  status CLOSED;
  mean_replacement_time 3600;
}
object fuse {
  name R3_12_47_3_fuse_139;
// downstream 22.02 kva on BCS
  phases BCN;
  from R3_12_47_3_node_1930;
  to R3_12_47_3_node_1931;
  current_limit 40;
  status CLOSED;
  mean_replacement_time 3600;
}
object fuse {
  name R3_12_47_3_fuse_140;
// downstream 32.26 kva on BCS
  phases BCN;
  from R3_12_47_3_node_1978;
  to R3_12_47_3_node_1979;
  current_limit 40;
  status CLOSED;
  mean_replacement_time 3600;
}
object switch {
  name R3_12_47_3_switch_1;
// downstream 8589.62 kva on ABCS
  phases ABCN;
  from R3_12_47_3_node_1;
  to R3_12_47_3_node_1999;
  status CLOSED;
}
object switch {
  name R3_12_47_3_switch_2;
// downstream 2344.09 kva on ABCS
  phases ABCN;
  from R3_12_47_3_node_413;
  to R3_12_47_3_node_414;
  status CLOSED;
}
object switch {
  name R3_12_47_3_switch_3;
// downstream 232.08 kva on ABC
  phases ABCN;
  from R3_12_47_3_node_40;
  to R3_12_47_3_node_51;
  status CLOSED;
}
object switch {
  name R3_12_47_3_switch_4;
// downstream 232.08 kva on ABC
  phases ABCN;
  from R3_12_47_3_node_97;
  to R3_12_47_3_node_109;
  status CLOSED;
}
object switch {
  name R3_12_47_3_switch_5;
// downstream 44.04 kva on BS
  phases BN;
  from R3_12_47_3_node_231;
  to R3_12_47_3_node_232;
  status CLOSED;
}
object switch {
  name R3_12_47_3_switch_6;
// downstream 3895.86 kva on ABCS
  phases ABCN;
  from R3_12_47_3_node_122;
  to R3_12_47_3_node_240;
  status CLOSED;
}
object switch {
  name R3_12_47_3_switch_7;
// downstream 1496.40 kva on ABCS
  phases ABCN;
  from R3_12_47_3_node_260;
  to R3_12_47_3_node_261;
  status CLOSED;
}
object switch {
  name R3_12_47_3_switch_8;
// downstream 2781.66 kva on ABCS
  phases ABCN;
  from R3_12_47_3_node_317;
  to R3_12_47_3_node_318;
  status CLOSED;
}
object switch {
  name R3_12_47_3_switch_9;
// downstream 2514.57 kva on ABCS
...